AMMP:     
sim: command line: sim-outorder -fastfwd 100000000 -max:inst 100000000 -cache:dl1lat 4 -cache:il1 CACHE_IL1:64:64:8:l -cache:dl1 CACHE_DL1:64:64:8:l -cache:il2 CACHE_DL2:1024:64:8:l -fetch:ifqsize 4 -decode:width 4 -issue:width 16 -commit:width 12 -ruu:size 256 -lsq:size 4 -mem:lat 16 2 -mem:width 64 -res:ialu 4 -res:imult 4 -res:memport 3 -res:fpalu 4 -res:fpmult 4 -redir:sim /home/milax/Documents/GitHub/ACPrac1/Resultats/ammp/AMD/AmdAMMP_cacheSize.txt /lib/specs2000/ammp/exe/ammp.exe 
-cache:dl1       CACHE_DL1:64:64:8:l # l1 data cache config, i.e., {<config>|none}
-cache:il1       CACHE_IL1:64:64:8:l # l1 inst cache config, i.e., {<config>|dl1|dl2|none}
-cache:il2       CACHE_DL2:1024:64:8:l # l2 instruction cache config, i.e., {<config>|dl2|none}
CACHE_IL1.accesses        110235953 # total number of accesses
CACHE_IL1.hits            110235713 # total number of hits
CACHE_IL1.misses                240 # total number of misses
CACHE_IL1.replacements            0 # total number of replacements
CACHE_IL1.writebacks              0 # total number of writebacks
CACHE_IL1.invalidations            0 # total number of invalidations
CACHE_IL1.miss_rate          0.0000 # miss rate (i.e., misses/ref)
CACHE_IL1.repl_rate          0.0000 # replacement rate (i.e., repls/ref)
CACHE_IL1.wb_rate            0.0000 # writeback rate (i.e., wrbks/ref)
CACHE_IL1.inv_rate           0.0000 # invalidation rate (i.e., invs/ref)
CACHE_DL2.accesses              240 # total number of accesses
CACHE_DL2.hits                    0 # total number of hits
CACHE_DL2.misses                240 # total number of misses
CACHE_DL2.replacements            0 # total number of replacements
CACHE_DL2.writebacks              0 # total number of writebacks
CACHE_DL2.invalidations            0 # total number of invalidations
CACHE_DL2.miss_rate          1.0000 # miss rate (i.e., misses/ref)
CACHE_DL2.repl_rate          0.0000 # replacement rate (i.e., repls/ref)
CACHE_DL2.wb_rate            0.0000 # writeback rate (i.e., wrbks/ref)
CACHE_DL2.inv_rate           0.0000 # invalidation rate (i.e., invs/ref)
CACHE_DL1.accesses         30540615 # total number of accesses
CACHE_DL1.hits             27199448 # total number of hits
CACHE_DL1.misses            3341167 # total number of misses
CACHE_DL1.replacements      3340655 # total number of replacements
CACHE_DL1.writebacks          31863 # total number of writebacks
CACHE_DL1.invalidations            0 # total number of invalidations
CACHE_DL1.miss_rate          0.1094 # miss rate (i.e., misses/ref)
CACHE_DL1.repl_rate          0.1094 # replacement rate (i.e., repls/ref)
CACHE_DL1.wb_rate            0.0010 # writeback rate (i.e., wrbks/ref)
CACHE_DL1.inv_rate           0.0000 # invalidation rate (i.e., invs/ref)
sim_IPC                      0.7305 # instructions per cycle
EON:     
sim: command line: sim-outorder -fastfwd 100000000 -max:inst 100000000 -cache:dl1lat 4 -cache:il1 CACHE_IL1:64:64:8:l -cache:dl1 CACHE_DL1:64:64:8:l -cache:il2 CACHE_DL2:1024:64:8:l -fetch:ifqsize 4 -decode:width 4 -issue:width 16 -commit:width 12 -ruu:size 256 -lsq:size 4 -mem:lat 16 2 -mem:width 64 -res:ialu 4 -res:imult 4 -res:memport 3 -res:fpalu 4 -res:fpmult 4 -redir:sim /home/milax/Documents/GitHub/ACPrac1/Resultats/eon/AMD/AmdEON_cacheSize.txt /lib/specs2000/eon/exe/eon.exe chair.control.cook chair.camera chair.surfaces chair.cook.ppm ppm pixels_out.cook 
-cache:dl1       CACHE_DL1:64:64:8:l # l1 data cache config, i.e., {<config>|none}
-cache:il1       CACHE_IL1:64:64:8:l # l1 inst cache config, i.e., {<config>|dl1|dl2|ngetting pixel output filename pixels_out.cook
-cache:il2       CACHE_DL2:1024:64:8:l # l2 instruction cache config, i.e., {<config>|dl2|none}
CACHE_IL1.accesses        108950783 # total number of accesses
CACHE_IL1.hits            108928508 # total number of hits
CACHE_IL1.misses              22275 # total number of misses
CACHE_IL1.replacements        21882 # total number of replacements
CACHE_IL1.writebacks              0 # total number of writebacks
CACHE_IL1.invalidations            0 # total number of invalidations
CACHE_IL1.miss_rate          0.0002 # miss rate (i.e., misses/ref)
CACHE_IL1.repl_rate          0.0002 # replacement rate (i.e., repls/ref)
CACHE_IL1.wb_rate            0.0000 # writeback rate (i.e., wrbks/ref)
CACHE_IL1.inv_rate           0.0000 # invalidation rate (i.e., invs/ref)
CACHE_DL2.accesses            22275 # total number of accesses
CACHE_DL2.hits                21854 # total number of hits
CACHE_DL2.misses                421 # total number of misses
CACHE_DL2.replacements            0 # total number of replacements
CACHE_DL2.writebacks              0 # total number of writebacks
CACHE_DL2.invalidations            0 # total number of invalidations
CACHE_DL2.miss_rate          0.0189 # miss rate (i.e., misses/ref)
CACHE_DL2.repl_rate          0.0000 # replacement rate (i.e., repls/ref)
CACHE_DL2.wb_rate            0.0000 # writeback rate (i.e., wrbks/ref)
CACHE_DL2.inv_rate           0.0000 # invalidation rate (i.e., invs/ref)
CACHE_DL1.accesses         46084529 # total number of accesses
CACHE_DL1.hits             46044694 # total number of hits
CACHE_DL1.misses              39835 # total number of misses
CACHE_DL1.replacements        39323 # total number of replacements
CACHE_DL1.writebacks          20224 # total number of writebacks
CACHE_DL1.invalidations            0 # total number of invalidations
CACHE_DL1.miss_rate          0.0009 # miss rate (i.e., misses/ref)
CACHE_DL1.repl_rate          0.0009 # replacement rate (i.e., repls/ref)
CACHE_DL1.wb_rate            0.0004 # writeback rate (i.e., wrbks/ref)
CACHE_DL1.inv_rate           0.0000 # invalidation rate (i.e., invs/ref)
sim_IPC                      1.0612 # instructions per cycle
EQUAKE:     
sim: command line: sim-outorder -fastfwd 100000000 -max:inst 100000000 -cache:dl1lat 4 -cache:il1 CACHE_IL1:64:64:8:l -cache:dl1 CACHE_DL1:64:64:8:l -cache:il2 CACHE_DL2:1024:64:8:l -fetch:ifqsize 4 -decode:width 4 -issue:width 16 -commit:width 12 -ruu:size 256 -lsq:size 4 -mem:lat 16 2 -mem:width 64 -res:ialu 4 -res:imult 4 -res:memport 3 -res:fpalu 4 -res:fpmult 4 -redir:sim /home/milax/Documents/GitHub/ACPrac1/Resultats/equake/AMD/AmdEQUAKE_cacheSize.txt /lib/specs2000/equake/exe/equake.exe 
-cache:dl1       CACHE_DL1:64:64:8:l # l1 data cache config, i.e., {<config>|none}
-cache:il1       CACHE_IL1:64:64:8:l # l1 inst cache config, i.e., {<config>|dl1|dl2|none}
-cache:il2       CACHE_DL2:1024:64:8:l # l2 instruction cache config, i.e., {<config>|dl2|none}
CACHE_IL1.accesses        108035018 # total number of accesses
CACHE_IL1.hits            108034813 # total number of hits
CACHE_IL1.misses                205 # total number of misses
CACHE_IL1.replacements            0 # total number of replacements
CACHE_IL1.writebacks              0 # total number of writebacks
CACHE_IL1.invalidations            0 # total number of invalidations
CACHE_IL1.miss_rate          0.0000 # miss rate (i.e., misses/ref)
CACHE_IL1.repl_rate          0.0000 # replacement rate (i.e., repls/ref)
CACHE_IL1.wb_rate            0.0000 # writeback rate (i.e., wrbks/ref)
CACHE_IL1.inv_rate           0.0000 # invalidation rate (i.e., invs/ref)
CACHE_DL2.accesses              205 # total number of accesses
CACHE_DL2.hits                    0 # total number of hits
CACHE_DL2.misses                205 # total number of misses
CACHE_DL2.replacements            0 # total number of replacements
CACHE_DL2.writebacks              0 # total number of writebacks
CACHE_DL2.invalidations            0 # total number of invalidations
CACHE_DL2.miss_rate          1.0000 # miss rate (i.e., misses/ref)
CACHE_DL2.repl_rate          0.0000 # replacement rate (i.e., repls/ref)
CACHE_DL2.wb_rate            0.0000 # writeback rate (i.e., wrbks/ref)
CACHE_DL2.inv_rate           0.0000 # invalidation rate (i.e., invs/ref)
CACHE_DL1.accesses         36194804 # total number of accesses
CACHE_DL1.hits             36187563 # total number of hits
CACHE_DL1.misses               7241 # total number of misses
CACHE_DL1.replacements         6729 # total number of replacements
CACHE_DL1.writebacks           5265 # total number of writebacks
CACHE_DL1.invalidations            0 # total number of invalidations
CACHE_DL1.miss_rate          0.0002 # miss rate (i.e., misses/ref)
CACHE_DL1.repl_rate          0.0002 # replacement rate (i.e., repls/ref)
CACHE_DL1.wb_rate            0.0001 # writeback rate (i.e., wrbks/ref)
CACHE_DL1.inv_rate           0.0000 # invalidation rate (i.e., invs/ref)
sim_IPC                      1.2984 # instructions per cycle
GAP:     
sim: command line: sim-outorder -fastfwd 100000000 -max:inst 100000000 -cache:dl1lat 4 -cache:il1 CACHE_IL1:64:64:8:l -cache:dl1 CACHE_DL1:64:64:8:l -cache:il2 CACHE_DL2:1024:64:8:l -fetch:ifqsize 4 -decode:width 4 -issue:width 16 -commit:width 12 -ruu:size 256 -lsq:size 4 -mem:lat 16 2 -mem:width 64 -res:ialu 4 -res:imult 4 -res:memport 3 -res:fpalu 4 -res:fpmult 4 -redir:sim /home/milax/Documents/GitHub/ACPrac1/Resultats/gap/AMD/AmdGAP_cacheSize.txt /lib/specs2000/gap/exe/gap.exe -l /usr/lib/specs2000/gap/data/all -q -m 192M 
-cache:dl1       CACHE_DL1:64:64:8:l # l1 data cache config, i.e., {<config>|none}
-cache:il1       CACHE_IL1:64:64:8:l # l1 inst cache config, i.e., {<config>|dl1|dl2|none}
-cache:il2       CACHE_DL2:1024:64:8:l # l2 instruction cache config, i.e., {<config>|dl2|none}
CACHE_IL1.accesses        106311104 # total number of accesses
CACHE_IL1.hits            106305488 # total number of hits
CACHE_IL1.misses               5616 # total number of misses
CACHE_IL1.replacements         5104 # total number of replacements
CACHE_IL1.writebacks              0 # total number of writebacks
CACHE_IL1.invalidations            0 # total number of invalidations
CACHE_IL1.miss_rate          0.0001 # miss rate (i.e., misses/ref)
CACHE_IL1.repl_rate          0.0000 # replacement rate (i.e., repls/ref)
CACHE_IL1.wb_rate            0.0000 # writeback rate (i.e., wrbks/ref)
CACHE_IL1.inv_rate           0.0000 # invalidation rate (i.e., invs/ref)
CACHE_DL2.accesses             5616 # total number of accesses
CACHE_DL2.hits                 3994 # total number of hits
CACHE_DL2.misses               1622 # total number of misses
CACHE_DL2.replacements            0 # total number of replacements
CACHE_DL2.writebacks              0 # total number of writebacks
CACHE_DL2.invalidations            0 # total number of invalidations
CACHE_DL2.miss_rate          0.2888 # miss rate (i.e., misses/ref)
CACHE_DL2.repl_rate          0.0000 # replacement rate (i.e., repls/ref)
CACHE_DL2.wb_rate            0.0000 # writeback rate (i.e., wrbks/ref)
CACHE_DL2.inv_rate           0.0000 # invalidation rate (i.e., invs/ref)
CACHE_DL1.accesses         40523326 # total number of accesses
CACHE_DL1.hits             39925574 # total number of hits
CACHE_DL1.misses             597752 # total number of misses
CACHE_DL1.replacements       597240 # total number of replacements
CACHE_DL1.writebacks         581165 # total number of writebacks
CACHE_DL1.invalidations            0 # total number of invalidations
CACHE_DL1.miss_rate          0.0148 # miss rate (i.e., misses/ref)
CACHE_DL1.repl_rate          0.0147 # replacement rate (i.e., repls/ref)
CACHE_DL1.wb_rate            0.0143 # writeback rate (i.e., wrbks/ref)
CACHE_DL1.inv_rate           0.0000 # invalidation rate (i.e., invs/ref)
sim_IPC                      1.1680 # instructions per cycle
MESA:     
sim: command line: sim-outorder -fastfwd 100000000 -max:inst 100000000 -cache:dl1lat 4 -cache:il1 CACHE_IL1:64:64:8:l -cache:dl1 CACHE_DL1:64:64:8:l -cache:il2 CACHE_DL2:1024:64:8:l -fetch:ifqsize 4 -decode:width 4 -issue:width 16 -commit:width 12 -ruu:size 256 -lsq:size 4 -mem:lat 16 2 -mem:width 64 -res:ialu 4 -res:imult 4 -res:memport 3 -res:fpalu 4 -res:fpmult 4 -redir:sim /home/milax/Documents/GitHub/ACPrac1/Resultats/mesa/AMD/AmdMESA_cacheSize.txt /lib/specs2000/mesa/exe/mesa.exe -frames 1000 -meshfile mesa.in -ppmfile mesa.ppm 
-cache:dl1       CACHE_DL1:64:64:8:l # l1 data cache config, i.e., {<config>|none}
-cache:il1       CACHE_IL1:64:64:8:l # l1 inst cache config, i.e., {<config>|dl1|dl2|none}
-cache:il2       CACHE_DL2:1024:64:8:l # l2 instruction cache config, i.e., {<config>|dl2|none}
CACHE_IL1.accesses        108706522 # total number of accesses
CACHE_IL1.hits            108706357 # total number of hits
CACHE_IL1.misses                165 # total number of misses
CACHE_IL1.replacements            0 # total number of replacements
CACHE_IL1.writebacks              0 # total number of writebacks
CACHE_IL1.invalidations            0 # total number of invalidations
CACHE_IL1.miss_rate          0.0000 # miss rate (i.e., misses/ref)
CACHE_IL1.repl_rate          0.0000 # replacement rate (i.e., repls/ref)
CACHE_IL1.wb_rate            0.0000 # writeback rate (i.e., wrbks/ref)
CACHE_IL1.inv_rate           0.0000 # invalidation rate (i.e., invs/ref)
CACHE_DL2.accesses              165 # total number of accesses
CACHE_DL2.hits                    0 # total number of hits
CACHE_DL2.misses                165 # total number of misses
CACHE_DL2.replacements            0 # total number of replacements
CACHE_DL2.writebacks              0 # total number of writebacks
CACHE_DL2.invalidations            0 # total number of invalidations
CACHE_DL2.miss_rate          1.0000 # miss rate (i.e., misses/ref)
CACHE_DL2.repl_rate          0.0000 # replacement rate (i.e., repls/ref)
CACHE_DL2.wb_rate            0.0000 # writeback rate (i.e., wrbks/ref)
CACHE_DL2.inv_rate           0.0000 # invalidation rate (i.e., invs/ref)
CACHE_DL1.accesses         35944101 # total number of accesses
CACHE_DL1.hits             35942054 # total number of hits
CACHE_DL1.misses               2047 # total number of misses
CACHE_DL1.replacements         1535 # total number of replacements
CACHE_DL1.writebacks           1535 # total number of writebacks
CACHE_DL1.invalidations            0 # total number of invalidations
CACHE_DL1.miss_rate          0.0001 # miss rate (i.e., misses/ref)
CACHE_DL1.repl_rate          0.0000 # replacement rate (i.e., repls/ref)
CACHE_DL1.wb_rate            0.0000 # writeback rate (i.e., wrbks/ref)
CACHE_DL1.inv_rate           0.0000 # invalidation rate (i.e., invs/ref)
sim_IPC                      1.2802 # instructions per cycle
