AMMP:     
sim: command line: sim-outorder -fastfwd 100000000 -max:inst 100000000 -cache:il1 CACHE_IL1:64:128:8:l -cache:dl1 CACHE_DL1:64:128:8:l -cache:il2 CACHE_DL2:1024:128:8:l -fetch:ifqsize 4 -decode:width 8 -issue:width 16 -commit:width 12 -ruu:size 64 -lsq:size 4 -mem:lat 16 2 -mem:width 64 -res:ialu 4 -res:imult 4 -res:memport 3 -res:fpalu 4 -res:fpmult 4 -redir:sim /home/milax/Documents/GitHub/ACPrac1/Resultats/ammp/AMD/AmdAMMP_decodeChange.txt /lib/specs2000/ammp/exe/ammp.exe 
-cache:dl1       CACHE_DL1:64:128:8:l # l1 data cache config, i.e., {<config>|none}
-cache:il1       CACHE_IL1:64:128:8:l # l1 inst cache config, i.e., {<config>|dl1|dl2|none}
-cache:il2       CACHE_DL2:1024:128:8:l # l2 instruction cache config, i.e., {<config>|dl2|none}
CACHE_IL1.accesses                4 # total number of accesses
CACHE_IL1.hits                    3 # total number of hits
CACHE_IL1.misses                  1 # total number of misses
CACHE_IL1.replacements            0 # total number of replacements
CACHE_IL1.writebacks              0 # total number of writebacks
CACHE_IL1.invalidations            0 # total number of invalidations
CACHE_IL1.miss_rate          0.2500 # miss rate (i.e., misses/ref)
CACHE_IL1.repl_rate          0.0000 # replacement rate (i.e., repls/ref)
CACHE_IL1.wb_rate            0.0000 # writeback rate (i.e., wrbks/ref)
CACHE_IL1.inv_rate           0.0000 # invalidation rate (i.e., invs/ref)
CACHE_DL2.accesses                1 # total number of accesses
CACHE_DL2.hits                    0 # total number of hits
CACHE_DL2.misses                  1 # total number of misses
CACHE_DL2.replacements            0 # total number of replacements
CACHE_DL2.writebacks              0 # total number of writebacks
CACHE_DL2.invalidations            0 # total number of invalidations
CACHE_DL2.miss_rate          1.0000 # miss rate (i.e., misses/ref)
CACHE_DL2.repl_rate          0.0000 # replacement rate (i.e., repls/ref)
CACHE_DL2.wb_rate            0.0000 # writeback rate (i.e., wrbks/ref)
CACHE_DL2.inv_rate           0.0000 # invalidation rate (i.e., invs/ref)
CACHE_DL1.accesses                1 # total number of accesses
CACHE_DL1.hits                    0 # total number of hits
CACHE_DL1.misses                  1 # total number of misses
CACHE_DL1.replacements            0 # total number of replacements
CACHE_DL1.writebacks              0 # total number of writebacks
CACHE_DL1.invalidations            0 # total number of invalidations
CACHE_DL1.miss_rate          1.0000 # miss rate (i.e., misses/ref)
CACHE_DL1.repl_rate          0.0000 # replacement rate (i.e., repls/ref)
CACHE_DL1.wb_rate            0.0000 # writeback rate (i.e., wrbks/ref)
CACHE_DL1.inv_rate           0.0000 # invalidation rate (i.e., invs/ref)
sim_IPC                      0.0909 # instructions per cycle
EON:     
sim: command line: sim-outorder -fastfwd 100000000 -max:inst 100000000 -cache:il1 CACHE_IL1:64:128:8:l -cache:dl1 CACHE_DL1:64:128:8:l -cache:il2 CACHE_DL2:1024:128:8:l -fetch:ifqsize 4 -decode:width 8 -issue:width 16 -commit:width 12 -ruu:size 64 -lsq:size 4 -mem:lat 16 2 -mem:width 64 -res:ialu 4 -res:imult 4 -res:memport 3 -res:fpalu 4 -res:fpmult 4 -redir:sim /home/milax/Documents/GitHub/ACPrac1/Resultats/eon/AMD/AmdEON_decodeChange.txt /lib/specs2000/eon/exe/eon.exe chair.control.cook chair.camera chair.surfaces chair.cook.ppm ppm pixels_out.cook 
-cache:dl1       CACHE_DL1:64:128:8:l # l1 data cache config, i.e., {<config>|none}
-cache:il1       CACHE_IL1:64:128:8:l # l1 inst cache config, i.e., {<config>|dl1|dl2|none}
-cache:il2       CACHE_DL2:1024:128:8:l # l2 instruction cache config, i.e., {<config>|dl2|none}
CACHE_IL1.accesses               23 # total number of accesses
CACHE_IL1.hits                   22 # total number of hits
CACHE_IL1.misses                  1 # total number of misses
CACHE_IL1.replacements            0 # total number of replacements
CACHE_IL1.writebacks              0 # total number of writebacks
CACHE_IL1.invalidations            0 # total number of invalidations
CACHE_IL1.miss_rate          0.0435 # miss rate (i.e., misses/ref)
CACHE_IL1.repl_rate          0.0000 # replacement rate (i.e., repls/ref)
CACHE_IL1.wb_rate            0.0000 # writeback rate (i.e., wrbks/ref)
CACHE_IL1.inv_rate           0.0000 # invalidation rate (i.e., invs/ref)
CACHE_DL2.accesses                1 # total number of accesses
CACHE_DL2.hits                    0 # total number of hits
CACHE_DL2.misses                  1 # total number of misses
CACHE_DL2.replacements            0 # total number of replacements
CACHE_DL2.writebacks              0 # total number of writebacks
CACHE_DL2.invalidations            0 # total number of invalidations
CACHE_DL2.miss_rate          1.0000 # miss rate (i.e., misses/ref)
CACHE_DL2.repl_rate          0.0000 # replacement rate (i.e., repls/ref)
CACHE_DL2.wb_rate            0.0000 # writeback rate (i.e., wrbks/ref)
CACHE_DL2.inv_rate           0.0000 # invalidation rate (i.e., invs/ref)
CACHE_DL1.accesses                1 # total number of accesses
CACHE_DL1.hits                    0 # total number of hits
CACHE_DL1.misses                  1 # total number of misses
CACHE_DL1.replacements            0 # total number of replacements
CACHE_DL1.writebacks              0 # total number of writebacks
CACHE_DL1.invalidations            0 # total number of invalidations
CACHE_DL1.miss_rate          1.0000 # miss rate (i.e., misses/ref)
CACHE_DL1.repl_rate          0.0000 # replacement rate (i.e., repls/ref)
CACHE_DL1.wb_rate            0.0000 # writeback rate (i.e., wrbks/ref)
CACHE_DL1.inv_rate           0.0000 # invalidation rate (i.e., invs/ref)
sim_IPC                      0.2500 # instructions per cycle
EQUAKE:     
sim: command line: sim-outorder -fastfwd 100000000 -max:inst 100000000 -cache:il1 CACHE_IL1:64:128:8:l -cache:dl1 CACHE_DL1:64:128:8:l -cache:il2 CACHE_DL2:1024:128:8:l -fetch:ifqsize 4 -decode:width 8 -issue:width 16 -commit:width 12 -ruu:size 64 -lsq:size 4 -mem:lat 16 2 -mem:width 64 -res:ialu 4 -res:imult 4 -res:memport 3 -res:fpalu 4 -res:fpmult 4 -redir:sim /home/milax/Documents/GitHub/ACPrac1/Resultats/equake/AMD/AmdEQUAKE_decodeChange.txt /lib/specs2000/equake/exe/equake.exe 
-cache:dl1       CACHE_DL1:64:128:8:l # l1 data cache config, i.e., {<config>|none}
-cache:il1       CACHE_IL1:64:128:8:l # l1 inst cache config, i.e., {<config>|dl1|dl2|none}
-cache:il2       CACHE_DL2:1024:128:8:l # l2 instruction cache config, i.e., {<config>|dl2|none}
CACHE_IL1.accesses               12 # total number of accesses
CACHE_IL1.hits                   11 # total number of hits
CACHE_IL1.misses                  1 # total number of misses
CACHE_IL1.replacements            0 # total number of replacements
CACHE_IL1.writebacks              0 # total number of writebacks
CACHE_IL1.invalidations            0 # total number of invalidations
CACHE_IL1.miss_rate          0.0833 # miss rate (i.e., misses/ref)
CACHE_IL1.repl_rate          0.0000 # replacement rate (i.e., repls/ref)
CACHE_IL1.wb_rate            0.0000 # writeback rate (i.e., wrbks/ref)
CACHE_IL1.inv_rate           0.0000 # invalidation rate (i.e., invs/ref)
CACHE_DL2.accesses                1 # total number of accesses
CACHE_DL2.hits                    0 # total number of hits
CACHE_DL2.misses                  1 # total number of misses
CACHE_DL2.replacements            0 # total number of replacements
CACHE_DL2.writebacks              0 # total number of writebacks
CACHE_DL2.invalidations            0 # total number of invalidations
CACHE_DL2.miss_rate          1.0000 # miss rate (i.e., misses/ref)
CACHE_DL2.repl_rate          0.0000 # replacement rate (i.e., repls/ref)
CACHE_DL2.wb_rate            0.0000 # writeback rate (i.e., wrbks/ref)
CACHE_DL2.inv_rate           0.0000 # invalidation rate (i.e., invs/ref)
CACHE_DL1.accesses                1 # total number of accesses
CACHE_DL1.hits                    0 # total number of hits
CACHE_DL1.misses                  1 # total number of misses
CACHE_DL1.replacements            0 # total number of replacements
CACHE_DL1.writebacks              0 # total number of writebacks
CACHE_DL1.invalidations            0 # total number of invalidations
CACHE_DL1.miss_rate          1.0000 # miss rate (i.e., misses/ref)
CACHE_DL1.repl_rate          0.0000 # replacement rate (i.e., repls/ref)
CACHE_DL1.wb_rate            0.0000 # writeback rate (i.e., wrbks/ref)
CACHE_DL1.inv_rate           0.0000 # invalidation rate (i.e., invs/ref)
sim_IPC                      0.3235 # instructions per cycle
GAP:     
sim: command line: sim-outorder -fastfwd 100000000 -max:inst 100000000 -cache:il1 CACHE_IL1:64:128:8:l -cache:dl1 CACHE_DL1:64:128:8:l -cache:il2 CACHE_DL2:1024:128:8:l -fetch:ifqsize 4 -decode:width 8 -issue:width 16 -commit:width 12 -ruu:size 64 -lsq:size 4 -mem:lat 16 2 -mem:width 64 -res:ialu 4 -res:imult 4 -res:memport 3 -res:fpalu 4 -res:fpmult 4 -redir:sim /home/milax/Documents/GitHub/ACPrac1/Resultats/gap/AMD/AmdGAP_decodeChange.txt /lib/specs2000/gap/exe/gap.exe -l /usr/lib/specs2000/gap/data/all -q -m 192M 
-cache:dl1       CACHE_DL1:64:128:8:l # l1 data cache config, i.e., {<config>|none}
-cache:il1       CACHE_IL1:64:128:8:l # l1 inst cache config, i.e., {<config>|dl1|dl2|none}
-cache:il2       CACHE_DL2:1024:128:8:l # l2 instruction cache config, i.e., {<config>|dl2|none}
CACHE_IL1.accesses                6 # total number of accesses
CACHE_IL1.hits                    4 # total number of hits
CACHE_IL1.misses                  2 # total number of misses
CACHE_IL1.replacements            0 # total number of replacements
CACHE_IL1.writebacks              0 # total number of writebacks
CACHE_IL1.invalidations            0 # total number of invalidations
CACHE_IL1.miss_rate          0.3333 # miss rate (i.e., misses/ref)
CACHE_IL1.repl_rate          0.0000 # replacement rate (i.e., repls/ref)
CACHE_IL1.wb_rate            0.0000 # writeback rate (i.e., wrbks/ref)
CACHE_IL1.inv_rate           0.0000 # invalidation rate (i.e., invs/ref)
CACHE_DL2.accesses                2 # total number of accesses
CACHE_DL2.hits                    0 # total number of hits
CACHE_DL2.misses                  2 # total number of misses
CACHE_DL2.replacements            0 # total number of replacements
CACHE_DL2.writebacks              0 # total number of writebacks
CACHE_DL2.invalidations            0 # total number of invalidations
CACHE_DL2.miss_rate          1.0000 # miss rate (i.e., misses/ref)
CACHE_DL2.repl_rate          0.0000 # replacement rate (i.e., repls/ref)
CACHE_DL2.wb_rate            0.0000 # writeback rate (i.e., wrbks/ref)
CACHE_DL2.inv_rate           0.0000 # invalidation rate (i.e., invs/ref)
CACHE_DL1.accesses                1 # total number of accesses
CACHE_DL1.hits                    0 # total number of hits
CACHE_DL1.misses                  1 # total number of misses
CACHE_DL1.replacements            0 # total number of replacements
CACHE_DL1.writebacks              0 # total number of writebacks
CACHE_DL1.invalidations            0 # total number of invalidations
CACHE_DL1.miss_rate          1.0000 # miss rate (i.e., misses/ref)
CACHE_DL1.repl_rate          0.0000 # replacement rate (i.e., repls/ref)
CACHE_DL1.wb_rate            0.0000 # writeback rate (i.e., wrbks/ref)
CACHE_DL1.inv_rate           0.0000 # invalidation rate (i.e., invs/ref)
sim_IPC                      0.1212 # instructions per cycle
MESA:     
sim: command line: sim-outorder -fastfwd 100000000 -max:inst 100000000 -cache:il1 CACHE_IL1:64:128:8:l -cache:dl1 CACHE_DL1:64:128:8:l -cache:il2 CACHE_DL2:1024:128:8:l -fetch:ifqsize 4 -decode:width 8 -issue:width 16 -commit:width 12 -ruu:size 64 -lsq:size 4 -mem:lat 16 2 -mem:width 64 -res:ialu 4 -res:imult 4 -res:memport 3 -res:fpalu 4 -res:fpmult 4 -redir:sim /home/milax/Documents/GitHub/ACPrac1/Resultats/mesa/AMD/AmdMESA_decodeChange.txt /lib/specs2000/mesa/exe/mesa.exe -frames 1000 -meshfile mesa.in -ppmfile mesa.ppm 
-cache:dl1       CACHE_DL1:64:128:8:l # l1 data cache config, i.e., {<config>|none}
-cache:il1       CACHE_IL1:64:128:8:l # l1 inst cache config, i.e., {<config>|dl1|dl2|none}
-cache:il2       CACHE_DL2:1024:128:8:l # l2 instruction cache config, i.e., {<config>|dl2|none}
CACHE_IL1.accesses               19 # total number of accesses
CACHE_IL1.hits                   17 # total number of hits
CACHE_IL1.misses                  2 # total number of misses
CACHE_IL1.replacements            0 # total number of replacements
CACHE_IL1.writebacks              0 # total number of writebacks
CACHE_IL1.invalidations            0 # total number of invalidations
CACHE_IL1.miss_rate          0.1053 # miss rate (i.e., misses/ref)
CACHE_IL1.repl_rate          0.0000 # replacement rate (i.e., repls/ref)
CACHE_IL1.wb_rate            0.0000 # writeback rate (i.e., wrbks/ref)
CACHE_IL1.inv_rate           0.0000 # invalidation rate (i.e., invs/ref)
CACHE_DL2.accesses                2 # total number of accesses
CACHE_DL2.hits                    0 # total number of hits
CACHE_DL2.misses                  2 # total number of misses
CACHE_DL2.replacements            0 # total number of replacements
CACHE_DL2.writebacks              0 # total number of writebacks
CACHE_DL2.invalidations            0 # total number of invalidations
CACHE_DL2.miss_rate          1.0000 # miss rate (i.e., misses/ref)
CACHE_DL2.repl_rate          0.0000 # replacement rate (i.e., repls/ref)
CACHE_DL2.wb_rate            0.0000 # writeback rate (i.e., wrbks/ref)
CACHE_DL2.inv_rate           0.0000 # invalidation rate (i.e., invs/ref)
CACHE_DL1.accesses                1 # total number of accesses
CACHE_DL1.hits                    0 # total number of hits
CACHE_DL1.misses                  1 # total number of misses
CACHE_DL1.replacements            0 # total number of replacements
CACHE_DL1.writebacks              0 # total number of writebacks
CACHE_DL1.invalidations            0 # total number of invalidations
CACHE_DL1.miss_rate          1.0000 # miss rate (i.e., misses/ref)
CACHE_DL1.repl_rate          0.0000 # replacement rate (i.e., repls/ref)
CACHE_DL1.wb_rate            0.0000 # writeback rate (i.e., wrbks/ref)
CACHE_DL1.inv_rate           0.0000 # invalidation rate (i.e., invs/ref)
sim_IPC                      0.1053 # instructions per cycle
