AMMP:     
sim: command line: sim-outorder -fastfwd 100000000 -max:inst 100000000 -cache:il1 CACHE_IL1:64:64:8:l -cache:dl1 CACHE_DL1:64:64:8:l -cache:il2 CACHE_DL2:1024:64:8:l -fetch:ifqsize 4 -decode:width 8 -issue:width 16 -commit:width 12 -ruu:size 64 -lsq:size 8 -mem:lat 16 2 -mem:width 64 -res:ialu 4 -res:imult 4 -res:memport 3 -res:fpalu 4 -res:fpmult 4 -redir:sim /home/milax/Documents/GitHub/ACPrac1/Resultats/ammp/AMD/AmdAMMP_decodeChange.txt /lib/specs2000/ammp/exe/ammp.exe 
-cache:dl1       CACHE_DL1:64:64:8:l # l1 data cache config, i.e., {<config>|none}
-cache:il1       CACHE_IL1:64:64:8:l # l1 inst cache config, i.e., {<config>|dl1|dl2|none}
-cache:il2       CACHE_DL2:1024:64:8:l # l2 instruction cache config, i.e., {<config>|dl2|none}
CACHE_IL1.accesses        111558679 # total number of accesses
CACHE_IL1.hits            111558438 # total number of hits
CACHE_IL1.misses                241 # total number of misses
CACHE_IL1.replacements            0 # total number of replacements
CACHE_IL1.writebacks              0 # total number of writebacks
CACHE_IL1.invalidations            0 # total number of invalidations
CACHE_IL1.miss_rate          0.0000 # miss rate (i.e., misses/ref)
CACHE_IL1.repl_rate          0.0000 # replacement rate (i.e., repls/ref)
CACHE_IL1.wb_rate            0.0000 # writeback rate (i.e., wrbks/ref)
CACHE_IL1.inv_rate           0.0000 # invalidation rate (i.e., invs/ref)
CACHE_DL2.accesses              241 # total number of accesses
CACHE_DL2.hits                    0 # total number of hits
CACHE_DL2.misses                241 # total number of misses
CACHE_DL2.replacements            0 # total number of replacements
CACHE_DL2.writebacks              0 # total number of writebacks
CACHE_DL2.invalidations            0 # total number of invalidations
CACHE_DL2.miss_rate          1.0000 # miss rate (i.e., misses/ref)
CACHE_DL2.repl_rate          0.0000 # replacement rate (i.e., repls/ref)
CACHE_DL2.wb_rate            0.0000 # writeback rate (i.e., wrbks/ref)
CACHE_DL2.inv_rate           0.0000 # invalidation rate (i.e., invs/ref)
CACHE_DL1.accesses         26812315 # total number of accesses
CACHE_DL1.hits             23471099 # total number of hits
CACHE_DL1.misses            3341216 # total number of misses
CACHE_DL1.replacements      3340704 # total number of replacements
CACHE_DL1.writebacks          31862 # total number of writebacks
CACHE_DL1.invalidations            0 # total number of invalidations
CACHE_DL1.miss_rate          0.1246 # miss rate (i.e., misses/ref)
CACHE_DL1.repl_rate          0.1246 # replacement rate (i.e., repls/ref)
CACHE_DL1.wb_rate            0.0012 # writeback rate (i.e., wrbks/ref)
CACHE_DL1.inv_rate           0.0000 # invalidation rate (i.e., invs/ref)
sim_IPC                      0.8832 # instructions per cycle
EON:     
sim: command line: sim-outorder -fastfwd 100000000 -max:inst 100000000 -cache:il1 CACHE_IL1:64:64:8:l -cache:dl1 CACHE_DL1:64:64:8:l -cache:il2 CACHE_DL2:1024:64:8:l -fetch:ifqsize 4 -decode:width 8 -issue:width 16 -commit:width 12 -ruu:size 64 -lsq:size 8 -mem:lat 16 2 -mem:width 64 -res:ialu 4 -res:imult 4 -res:memport 3 -res:fpalu 4 -res:fpmult 4 -redir:sim /home/milax/Documents/GitHub/ACPrac1/Resultats/eon/AMD/AmdEON_decodeChange.txt /lib/specs2000/eon/exe/eon.exe chair.control.cook chair.camera chair.surfaces chair.cook.ppm ppm pixels_out.cook 
-cache:dl1       CACHE_DL1:64:64:8:l # l1 data cache config, i.e., {<config>|none}
-cache:il1       CACHE_IL1:64:64:8:l # l1 inst cache config, i.e., {<config>|dl1|dl2|none}
-cache:il2       CACHE_DL2:1024:64:8:l # l2 instruction cache config, i.e., {<config>|dl2|none}
CACHE_IL1.accesses        111498498 # total number of accesses
CACHE_IL1.hits            111476257 # total number of hits
CACHE_IL1.misses              22241 # total number of misses
CACHE_IL1.replacements        21848 # total number of replacements
CACHE_IL1.writebacks              0 # total number of writebacks
CACHE_IL1.invalidations            0 # total number of invalidations
CACHE_IL1.miss_rate          0.0002 # miss rate (i.e., misses/ref)
CACHE_IL1.repl_rate          0.0002 # replacement rate (i.e., repls/ref)
CACHE_IL1.wb_rate            0.0000 # writeback rate (i.e., wrbks/ref)
CACHE_IL1.inv_rate           0.0000 # invalidation rate (i.e., invs/ref)
CACHE_DL2.accesses            22241 # total number of accesses
CACHE_DL2.hits                21820 # total number of hits
CACHE_DL2.misses                421 # total number of misses
CACHE_DL2.replacements            0 # total number of replacements
CACHE_DL2.writebacks              0 # total number of writebacks
CACHE_DL2.invalidations            0 # total number of invalidations
CACHE_DL2.miss_rate          0.0189 # miss rate (i.e., misses/ref)
CACHE_DL2.repl_rate          0.0000 # replacement rate (i.e., repls/ref)
CACHE_DL2.wb_rate            0.0000 # writeback rate (i.e., wrbks/ref)
CACHE_DL2.inv_rate           0.0000 # invalidation rate (i.e., invs/ref)
CACHE_DL1.accesses         45973644 # total number of accesses
CACHE_DL1.hits             45933809 # total number of hits
CACHE_DL1.misses              39835 # total number of misses
CACHE_DL1.replacements        39323 # total number of replacements
CACHE_DL1.writebacks          20224 # total number of writebacks
CACHE_DL1.invalidations            0 # total number of invalidations
CACHE_DL1.miss_rate          0.0009 # miss rate (i.e., misses/ref)
CACHE_DL1.repl_rate          0.0009 # replacement rate (i.e., repls/ref)
CACHE_DL1.wb_rate            0.0004 # writeback rate (i.e., wrbks/ref)
CACHE_DL1.inv_rate           0.0000 # invalidation rate (i.e., invs/ref)
sim_IPC                      1.9528 # instructions per cycle
EQUAKE:     
sim: command line: sim-outorder -fastfwd 100000000 -max:inst 100000000 -cache:il1 CACHE_IL1:64:64:8:l -cache:dl1 CACHE_DL1:64:64:8:l -cache:il2 CACHE_DL2:1024:64:8:l -fetch:ifqsize 4 -decode:width 8 -issue:width 16 -commit:width 12 -ruu:size 64 -lsq:size 8 -mem:lat 16 2 -mem:width 64 -res:ialu 4 -res:imult 4 -res:memport 3 -res:fpalu 4 -res:fpmult 4 -redir:sim /home/milax/Documents/GitHub/ACPrac1/Resultats/equake/AMD/AmdEQUAKE_decodeChange.txt /lib/specs2000/equake/exe/equake.exe 
-cache:dl1       CACHE_DL1:64:64:8:l # l1 data cache config, i.e., {<config>|none}
-cache:il1       CACHE_IL1:64:64:8:l # l1 inst cache config, i.e., {<config>|dl1|dl2|none}
-cache:il2       CACHE_DL2:1024:64:8:l # l2 instruction cache config, i.e., {<config>|dl2|none}
CACHE_IL1.accesses        109935958 # total number of accesses
CACHE_IL1.hits            109935755 # total number of hits
CACHE_IL1.misses                203 # total number of misses
CACHE_IL1.replacements            0 # total number of replacements
CACHE_IL1.writebacks              0 # total number of writebacks
CACHE_IL1.invalidations            0 # total number of invalidations
CACHE_IL1.miss_rate          0.0000 # miss rate (i.e., misses/ref)
CACHE_IL1.repl_rate          0.0000 # replacement rate (i.e., repls/ref)
CACHE_IL1.wb_rate            0.0000 # writeback rate (i.e., wrbks/ref)
CACHE_IL1.inv_rate           0.0000 # invalidation rate (i.e., invs/ref)
CACHE_DL2.accesses              203 # total number of accesses
CACHE_DL2.hits                    0 # total number of hits
CACHE_DL2.misses                203 # total number of misses
CACHE_DL2.replacements            0 # total number of replacements
CACHE_DL2.writebacks              0 # total number of writebacks
CACHE_DL2.invalidations            0 # total number of invalidations
CACHE_DL2.miss_rate          1.0000 # miss rate (i.e., misses/ref)
CACHE_DL2.repl_rate          0.0000 # replacement rate (i.e., repls/ref)
CACHE_DL2.wb_rate            0.0000 # writeback rate (i.e., wrbks/ref)
CACHE_DL2.inv_rate           0.0000 # invalidation rate (i.e., invs/ref)
CACHE_DL1.accesses         36205225 # total number of accesses
CACHE_DL1.hits             36197984 # total number of hits
CACHE_DL1.misses               7241 # total number of misses
CACHE_DL1.replacements         6729 # total number of replacements
CACHE_DL1.writebacks           5265 # total number of writebacks
CACHE_DL1.invalidations            0 # total number of invalidations
CACHE_DL1.miss_rate          0.0002 # miss rate (i.e., misses/ref)
CACHE_DL1.repl_rate          0.0002 # replacement rate (i.e., repls/ref)
CACHE_DL1.wb_rate            0.0001 # writeback rate (i.e., wrbks/ref)
CACHE_DL1.inv_rate           0.0000 # invalidation rate (i.e., invs/ref)
sim_IPC                      2.5996 # instructions per cycle
GAP:     
sim: command line: sim-outorder -fastfwd 100000000 -max:inst 100000000 -cache:il1 CACHE_IL1:64:64:8:l -cache:dl1 CACHE_DL1:64:64:8:l -cache:il2 CACHE_DL2:1024:64:8:l -fetch:ifqsize 4 -decode:width 8 -issue:width 16 -commit:width 12 -ruu:size 64 -lsq:size 8 -mem:lat 16 2 -mem:width 64 -res:ialu 4 -res:imult 4 -res:memport 3 -res:fpalu 4 -res:fpmult 4 -redir:sim /home/milax/Documents/GitHub/ACPrac1/Resultats/gap/AMD/AmdGAP_decodeChange.txt /lib/specs2000/gap/exe/gap.exe -l /usr/lib/specs2000/gap/data/all -q -m 192M 
-cache:dl1       CACHE_DL1:64:64:8:l # l1 data cache config, i.e., {<config>|none}
-cache:il1       CACHE_IL1:64:64:8:l # l1 inst cache config, i.e., {<config>|dl1|dl2|none}
-cache:il2       CACHE_DL2:1024:64:8:l # l2 instruction cache config, i.e., {<config>|dl2|none}
CACHE_IL1.accesses        108505865 # total number of accesses
CACHE_IL1.hits            108500295 # total number of hits
CACHE_IL1.misses               5570 # total number of misses
CACHE_IL1.replacements         5058 # total number of replacements
CACHE_IL1.writebacks              0 # total number of writebacks
CACHE_IL1.invalidations            0 # total number of invalidations
CACHE_IL1.miss_rate          0.0001 # miss rate (i.e., misses/ref)
CACHE_IL1.repl_rate          0.0000 # replacement rate (i.e., repls/ref)
CACHE_IL1.wb_rate            0.0000 # writeback rate (i.e., wrbks/ref)
CACHE_IL1.inv_rate           0.0000 # invalidation rate (i.e., invs/ref)
CACHE_DL2.accesses             5570 # total number of accesses
CACHE_DL2.hits                 3949 # total number of hits
CACHE_DL2.misses               1621 # total number of misses
CACHE_DL2.replacements            0 # total number of replacements
CACHE_DL2.writebacks              0 # total number of writebacks
CACHE_DL2.invalidations            0 # total number of invalidations
CACHE_DL2.miss_rate          0.2910 # miss rate (i.e., misses/ref)
CACHE_DL2.repl_rate          0.0000 # replacement rate (i.e., repls/ref)
CACHE_DL2.wb_rate            0.0000 # writeback rate (i.e., wrbks/ref)
CACHE_DL2.inv_rate           0.0000 # invalidation rate (i.e., invs/ref)
CACHE_DL1.accesses         40573962 # total number of accesses
CACHE_DL1.hits             39976193 # total number of hits
CACHE_DL1.misses             597769 # total number of misses
CACHE_DL1.replacements       597257 # total number of replacements
CACHE_DL1.writebacks         581164 # total number of writebacks
CACHE_DL1.invalidations            0 # total number of invalidations
CACHE_DL1.miss_rate          0.0147 # miss rate (i.e., misses/ref)
CACHE_DL1.repl_rate          0.0147 # replacement rate (i.e., repls/ref)
CACHE_DL1.wb_rate            0.0143 # writeback rate (i.e., wrbks/ref)
CACHE_DL1.inv_rate           0.0000 # invalidation rate (i.e., invs/ref)
sim_IPC                      2.3820 # instructions per cycle
MESA:     
sim: command line: sim-outorder -fastfwd 100000000 -max:inst 100000000 -cache:il1 CACHE_IL1:64:64:8:l -cache:dl1 CACHE_DL1:64:64:8:l -cache:il2 CACHE_DL2:1024:64:8:l -fetch:ifqsize 4 -decode:width 8 -issue:width 16 -commit:width 12 -ruu:size 64 -lsq:size 8 -mem:lat 16 2 -mem:width 64 -res:ialu 4 -res:imult 4 -res:memport 3 -res:fpalu 4 -res:fpmult 4 -redir:sim /home/milax/Documents/GitHub/ACPrac1/Resultats/mesa/AMD/AmdMESA_decodeChange.txt /lib/specs2000/mesa/exe/mesa.exe -frames 1000 -meshfile mesa.in -ppmfile mesa.ppm 
-cache:dl1       CACHE_DL1:64:64:8:l # l1 data cache config, i.e., {<config>|none}
-cache:il1       CACHE_IL1:64:64:8:l # l1 inst cache config, i.e., {<config>|dl1|dl2|none}
-cache:il2       CACHE_DL2:1024:64:8:l # l2 instruction cache config, i.e., {<config>|dl2|none}
CACHE_IL1.accesses        110489693 # total number of accesses
CACHE_IL1.hits            110489528 # total number of hits
CACHE_IL1.misses                165 # total number of misses
CACHE_IL1.replacements            0 # total number of replacements
CACHE_IL1.writebacks              0 # total number of writebacks
CACHE_IL1.invalidations            0 # total number of invalidations
CACHE_IL1.miss_rate          0.0000 # miss rate (i.e., misses/ref)
CACHE_IL1.repl_rate          0.0000 # replacement rate (i.e., repls/ref)
CACHE_IL1.wb_rate            0.0000 # writeback rate (i.e., wrbks/ref)
CACHE_IL1.inv_rate           0.0000 # invalidation rate (i.e., invs/ref)
CACHE_DL2.accesses              165 # total number of accesses
CACHE_DL2.hits                    0 # total number of hits
CACHE_DL2.misses                165 # total number of misses
CACHE_DL2.replacements            0 # total number of replacements
CACHE_DL2.writebacks              0 # total number of writebacks
CACHE_DL2.invalidations            0 # total number of invalidations
CACHE_DL2.miss_rate          1.0000 # miss rate (i.e., misses/ref)
CACHE_DL2.repl_rate          0.0000 # replacement rate (i.e., repls/ref)
CACHE_DL2.wb_rate            0.0000 # writeback rate (i.e., wrbks/ref)
CACHE_DL2.inv_rate           0.0000 # invalidation rate (i.e., invs/ref)
CACHE_DL1.accesses         36067463 # total number of accesses
CACHE_DL1.hits             36065416 # total number of hits
CACHE_DL1.misses               2047 # total number of misses
CACHE_DL1.replacements         1535 # total number of replacements
CACHE_DL1.writebacks           1535 # total number of writebacks
CACHE_DL1.invalidations            0 # total number of invalidations
CACHE_DL1.miss_rate          0.0001 # miss rate (i.e., misses/ref)
CACHE_DL1.repl_rate          0.0000 # replacement rate (i.e., repls/ref)
CACHE_DL1.wb_rate            0.0000 # writeback rate (i.e., wrbks/ref)
CACHE_DL1.inv_rate           0.0000 # invalidation rate (i.e., invs/ref)
sim_IPC                      2.5562 # instructions per cycle
